powerfulcases/cases/matpower/case18/case18.raw
0, 10, 33, 0, 0, 60  / 28-Jan-2026 21:51:01 - MATPOWER 8.1


     1, 'BUS 1       ',      12.5, 1,    1,    1, 1,           1,           0,  1.1,  0.9,  1.1,  0.9
     2, 'BUS 2       ',      12.5, 1,    1,    1, 1,           1,           0,  1.1,  0.9,  1.1,  0.9
     3, 'BUS 3       ',      12.5, 1,    1,    1, 1,           1,           0,  1.1,  0.9,  1.1,  0.9
     4, 'BUS 4       ',      12.5, 1,    1,    1, 1,           1,           0,  1.1,  0.9,  1.1,  0.9
     5, 'BUS 5       ',      12.5, 1,    1,    1, 1,           1,           0,  1.1,  0.9,  1.1,  0.9
     6, 'BUS 6       ',      12.5, 1,    1,    1, 1,           1,           0,  1.1,  0.9,  1.1,  0.9
     7, 'BUS 7       ',      12.5, 1,    1,    1, 1,           1,           0,  1.1,  0.9,  1.1,  0.9
     8, 'BUS 8       ',      12.5, 1,    1,    1, 1,           1,           0,  1.1,  0.9,  1.1,  0.9
     9, 'BUS 9       ',      12.5, 1,    1,    1, 1,           1,           0,  1.1,  0.9,  1.1,  0.9
    20, 'BUS 20      ',      12.5, 1,    1,    1, 1,           1,           0,  1.1,  0.9,  1.1,  0.9
    21, 'BUS 21      ',      12.5, 1,    1,    1, 1,           1,           0,  1.1,  0.9,  1.1,  0.9
    22, 'BUS 22      ',      12.5, 1,    1,    1, 1,           1,           0,  1.1,  0.9,  1.1,  0.9
    23, 'BUS 23      ',      12.5, 1,    1,    1, 1,           1,           0,  1.1,  0.9,  1.1,  0.9
    24, 'BUS 24      ',      12.5, 1,    1,    1, 1,           1,           0,  1.1,  0.9,  1.1,  0.9
    25, 'BUS 25      ',      12.5, 1,    1,    1, 1,           1,           0,  1.1,  0.9,  1.1,  0.9
    26, 'BUS 26      ',      12.5, 1,    1,    1, 1,           1,           0,  1.1,  0.9,  1.1,  0.9
    50, 'BUS 50      ',       138, 1,    1,    1, 1,           1,           0,  1.1,  0.9,  1.1,  0.9
    51, 'BUS 51      ',       138, 3,    1,    1, 1,           1,           0, 1.05, 1.05, 1.05, 1.05
0 / END OF BUS DATA, BEGIN LOAD DATA
     2,  1, 1,    1,    1,       0.2,      0.12, 0, 0, 0, 0, 1, 1, 0
     3,  1, 1,    1,    1,       0.4,      0.25, 0, 0, 0, 0, 1, 1, 0
     4,  1, 1,    1,    1,       1.5,      0.93, 0, 0, 0, 0, 1, 1, 0
     5,  1, 1,    1,    1,         3,      2.26, 0, 0, 0, 0, 1, 1, 0
     6,  1, 1,    1,    1,       0.8,       0.5, 0, 0, 0, 0, 1, 1, 0
     7,  1, 1,    1,    1,       0.2,      0.12, 0, 0, 0, 0, 1, 1, 0
     8,  1, 1,    1,    1,         1,      0.62, 0, 0, 0, 0, 1, 1, 0
     9,  1, 1,    1,    1,       0.5,      0.31, 0, 0, 0, 0, 1, 1, 0
    20,  1, 1,    1,    1,         1,      0.62, 0, 0, 0, 0, 1, 1, 0
    21,  1, 1,    1,    1,       0.3,      0.19, 0, 0, 0, 0, 1, 1, 0
    22,  1, 1,    1,    1,       0.2,      0.12, 0, 0, 0, 0, 1, 1, 0
    23,  1, 1,    1,    1,       0.8,       0.5, 0, 0, 0, 0, 1, 1, 0
    24,  1, 1,    1,    1,       0.5,      0.31, 0, 0, 0, 0, 1, 1, 0
    25,  1, 1,    1,    1,         1,      0.62, 0, 0, 0, 0, 1, 1, 0
    26,  1, 1,    1,    1,       0.2,      0.12, 0, 0, 0, 0, 1, 1, 0
0 / END OF LOAD DATA, BEGIN FIXED SHUNT DATA
     2, 1, 1,       0,    1.05
     3, 1, 1,       0,     0.6
     4, 1, 1,       0,     0.6
     5, 1, 1,       0,     1.8
     7, 1, 1,       0,     0.6
    20, 1, 1,       0,     0.6
    21, 1, 1,       0,     1.2
    24, 1, 1,       0,     1.5
    25, 1, 1,       0,     0.9
    50, 1, 1,       0,     1.2
0 / END OF FIXED SHUNT DATA, BEGIN GENERATOR DATA
    51,  1,         0,         0,       100,      -100,     1.05, 0,     100, 0, 1, 0, 0, 1, 1, 100,       100,         0, 1, 1, 0, 1, 0, 1, 0, 1, 0, 1
0 / END OF GENERATOR DATA, BEGIN BRANCH DATA
     1,      2, 1,  0.00431,  0.01204,  3.5e-05,       0,       0,       0, 0, 0, 0, 0, 1, 1, 0, 1, 1, 0, 1, 0, 1, 0, 1
     2,      3, 1,  0.00601,  0.01677,  4.9e-05,       0,       0,       0, 0, 0, 0, 0, 1, 1, 0, 1, 1, 0, 1, 0, 1, 0, 1
     3,      4, 1,  0.00316,  0.00882,  2.6e-05,       0,       0,       0, 0, 0, 0, 0, 1, 1, 0, 1, 1, 0, 1, 0, 1, 0, 1
     4,      5, 1,  0.00896,  0.02502,  7.3e-05,       0,       0,       0, 0, 0, 0, 0, 1, 1, 0, 1, 1, 0, 1, 0, 1, 0, 1
     5,      6, 1,  0.00295,  0.00824,  2.4e-05,       0,       0,       0, 0, 0, 0, 0, 1, 1, 0, 1, 1, 0, 1, 0, 1, 0, 1
     6,      7, 1,   0.0172,   0.0212,  4.6e-05,       0,       0,       0, 0, 0, 0, 0, 1, 1, 0, 1, 1, 0, 1, 0, 1, 0, 1
     7,      8, 1,   0.0407,  0.03053,  5.1e-05,       0,       0,       0, 0, 0, 0, 0, 1, 1, 0, 1, 1, 0, 1, 0, 1, 0, 1
     2,      9, 1,  0.01706,  0.02209,  4.3e-05,       0,       0,       0, 0, 0, 0, 0, 1, 1, 0, 1, 1, 0, 1, 0, 1, 0, 1
     1,     20, 1,   0.0291,  0.03768,  7.4e-05,       0,       0,       0, 0, 0, 0, 0, 1, 1, 0, 1, 1, 0, 1, 0, 1, 0, 1
    20,     21, 1,  0.02222,  0.02877,  5.6e-05,       0,       0,       0, 0, 0, 0, 0, 1, 1, 0, 1, 1, 0, 1, 0, 1, 0, 1
    21,     22, 1,  0.04803,  0.06218, 0.000122,       0,       0,       0, 0, 0, 0, 0, 1, 1, 0, 1, 1, 0, 1, 0, 1, 0, 1
    21,     23, 1,  0.03985,   0.0516, 0.000101,       0,       0,       0, 0, 0, 0, 0, 1, 1, 0, 1, 1, 0, 1, 0, 1, 0, 1
    23,     24, 1,   0.0291,  0.03768,  7.4e-05,       0,       0,       0, 0, 0, 0, 0, 1, 1, 0, 1, 1, 0, 1, 0, 1, 0, 1
    23,     25, 1,  0.03727,  0.04593,   0.0001,       0,       0,       0, 0, 0, 0, 0, 1, 1, 0, 1, 1, 0, 1, 0, 1, 0, 1
    25,     26, 1,  0.01104,   0.0136, 0.000118,       0,       0,       0, 0, 0, 0, 0, 1, 1, 0, 1, 1, 0, 1, 0, 1, 0, 1
    50,     51, 1,   0.0005,  0.00344,        0,       0,       0,       0, 0, 0, 0, 0, 1, 1, 0, 1, 1, 0, 1, 0, 1, 0, 1
0 / END OF BRANCH DATA, BEGIN TRANSFORMER DATA
    50,      1, 0, 1, 1, 1, 1, 0, 0, 2, '            ', 1, 1, 1, 0, 1, 0, 1, 0, 1, '            '
0.00312, 0.06753, 10
    1, 0,     0,       0,       0,       0, 0, 0, 1.1, 0.9, 1.1, 0.9, 33, 0, 0, 0, 0
    1, 0
0 / END OF TRANSFORMER DATA, BEGIN AREA DATA
0 / END OF AREA DATA, BEGIN TWO-TERMINAL DC DATA
0 / END OF TWO-TERMINAL DC DATA, BEGIN VOLTAGE SOURCE CONVERTER DATA
0 / END OF VOLTAGE SOURCE CONVERTER DATA, BEGIN IMPEDANCE CORRECTION DATA
0 / END OF IMPEDANCE CORRECTION DATA, BEGIN MULTI-TERMINAL DC DATA
0 / END OF MULTI-TERMINAL DC DATA, BEGIN MULTI-SECTION LINE DATA
0 / END OF MULTI-SECTION LINE DATA, BEGIN ZONE DATA
0 / END OF ZONE DATA, BEGIN INTER-AREA TRANSFER DATA
0 / END OF INTER-AREA TRANSFER DATA, BEGIN OWNER DATA
0 / END OF OWNER DATA, BEGIN FACTS CONTROL DEVICE DATA
0 / END OF FACTS CONTROL DEVICE DATA, BEGIN SWITCHED SHUNT DATA
0 / END OF SWITCHED SHUNT DATA, BEGIN GNE DEVICE DATA
0 / END OF GNE DEVICE DATA, BEGIN INDUCTION MACHINE DATA
0 / END OF INDUCTION MACHINE DATA
Q
